<?xml version="1.0" encoding="UTF-8"?>

<!-- generated on 2026-06-11T18:14:17.708659+05:30 by Eclipse SUMO netedit 1.26.0
<neteditConfiguration xmlns:xsi="http://www.w3.org/2001/XMLSchema-instance" xsi:noNamespaceSchemaLocation="http://sumo.dlr.de/xsd/neteditConfiguration.xsd">

    <input>
        <sumocfg-file value="C:\Users\Guest1\Desktop\JiteshSaagar\SumoUnity_TrafficSim_XR\github source\SUMO2Unity-main\Scenario1\Sumo2Unity.sumocfg"/>
        <sumo-net-file value="C:\Users\Guest1\Desktop\JiteshSaagar\SumoUnity_TrafficSim_XR\github source\SUMO2Unity-main\Scenario1\Sumo2Unity.net.xml"/>
    </input>

    <output>
        <output-file value="C:\Users\Guest1\Desktop\JiteshSaagar\SumoUnity_TrafficSim_XR\github source\SUMO2Unity-main\Scenario1\Sumo2Unity.net.xml"/>
    </output>

    <processing>
        <geometry.min-radius.fix.railways value="false"/>
        <geometry.avoid-overlap value="false"/>
        <geometry.max-grade.fix value="false"/>
        <offset.disable-normalization value="true"/>
        <lefthand value="0"/>
    </processing>

    <junctions>
        <no-turnarounds value="true"/>
        <junctions.corner-detail value="5"/>
        <junctions.limit-turn-speed value="5.50"/>
        <rectangular-lane-cut value="0"/>
    </junctions>

    <pedestrian>
        <walkingareas value="0"/>
    </pedestrian>

</neteditConfiguration>
-->

<net version="1.20" junctionCornerDetail="5" limitTurnSpeed="5.50" avoidOverlap="0" xmlns:xsi="http://www.w3.org/2001/XMLSchema-instance" xsi:noNamespaceSchemaLocation="http://sumo.dlr.de/xsd/net_file.xsd">

    <location netOffset="0.00,0.00" convBoundary="-76.54,-32.31,72.60,35.13" origBoundary="-10000000000.00,-10000000000.00,10000000000.00,10000000000.00" projParameter="!"/>

    <edge id=":J0_0" function="internal">
        <lane id=":J0_0_0" index="0" speed="8.99" length="25.81" shape="-63.34,19.81 -69.49,15.12 -71.49,10.44 -69.34,5.78 -63.03,1.12"/>
    </edge>
    <edge id=":J0_1" function="internal">
        <lane id=":J0_1_0" index="0" speed="6.36" length="3.67" shape="-63.34,19.81 -65.79,17.08"/>
    </edge>
    <edge id=":J0_6" function="internal">
        <lane id=":J0_6_0" index="0" speed="6.36" length="11.82" shape="-65.79,17.08 -66.06,16.78 -66.20,13.16 -64.13,10.13 -60.20,8.87"/>
    </edge>
    <edge id=":J0_2" function="internal">
        <lane id=":J0_2_0" index="0" speed="5.56" length="11.39" shape="-60.21,12.07 -64.16,12.37 -65.73,13.30 -64.93,14.85 -61.75,17.03"/>
    </edge>
    <edge id=":J0_3" function="internal">
        <lane id=":J0_3_0" index="0" speed="6.33" length="15.39" shape="-60.21,12.07 -64.07,10.78 -66.03,7.73 -65.79,4.12 -63.03,1.12"/>
    </edge>
    <edge id=":J0_4" function="internal">
        <lane id=":J0_4_0" index="0" speed="5.54" length="11.36" shape="-61.48,3.92 -64.73,6.08 -65.61,7.62 -64.10,8.55 -60.20,8.87"/>
    </edge>
    <edge id=":J0_5" function="internal">
        <lane id=":J0_5_0" index="0" speed="7.62" length="18.10" shape="-61.48,3.92 -65.92,7.19 -67.45,10.47 -66.06,13.75 -61.75,17.03"/>
    </edge>
    <edge id=":J1_0" function="internal">
        <lane id=":J1_0_0" index="0" speed="8.72" length="16.69" shape="15.13,12.28 8.91,12.59 4.44,13.61 1.72,15.36 0.75,17.82"/>
    </edge>
    <edge id=":J1_1" function="internal">
        <lane id=":J1_1_0" index="0" speed="13.89" length="22.86" shape="15.13,12.28 -7.73,12.16"/>
    </edge>
    <edge id=":J1_2" function="internal">
        <lane id=":J1_2_0" index="0" speed="10.03" length="7.43" shape="15.13,12.28 7.74,11.53"/>
    </edge>
    <edge id=":J1_3" function="internal">
        <lane id=":J1_3_0" index="0" speed="6.37" length="2.40" shape="15.13,12.28 12.85,11.52"/>
    </edge>
    <edge id=":J1_16" function="internal">
        <lane id=":J1_16_0" index="0" speed="10.03" length="15.83" shape="7.74,11.53 7.55,11.51 2.17,9.35 -0.99,5.77 -1.93,0.79"/>
    </edge>
    <edge id=":J1_17" function="internal">
        <lane id=":J1_17_0" index="0" speed="6.37" length="13.04" shape="12.85,11.52 11.25,10.99 9.26,7.95 9.48,4.34 12.22,1.29"/>
    </edge>
    <edge id=":J1_4" function="internal">
        <lane id=":J1_4_0" index="0" speed="5.52" length="11.13" shape="13.83,4.06 10.70,6.23 9.88,7.79 11.37,8.74 15.15,9.08"/>
    </edge>
    <edge id=":J1_5" function="internal">
        <lane id=":J1_5_0" index="0" speed="12.17" length="19.62" shape="13.83,4.06 8.18,7.71 4.12,11.23 1.65,14.59 0.75,17.82"/>
    </edge>
    <edge id=":J1_6" function="internal">
        <lane id=":J1_6_0" index="0" speed="13.89" length="23.15" shape="13.83,4.06 9.34,6.38 3.30,9.05 -2.86,11.25 -7.73,12.16"/>
    </edge>
    <edge id=":J1_7" function="internal">
        <lane id=":J1_7_0" index="0" speed="8.22" length="21.41" shape="13.83,4.06 6.80,7.36 1.83,7.91 -1.08,5.72 -1.93,0.79"/>
    </edge>
    <edge id=":J1_8" function="internal">
        <lane id=":J1_8_0" index="0" speed="6.73" length="13.85" shape="1.27,0.88 1.88,3.48 3.91,4.42 7.36,3.69 12.22,1.29"/>
    </edge>
    <edge id=":J1_9" function="internal">
        <lane id=":J1_9_0" index="0" speed="8.90" length="18.08" shape="1.27,0.88 2.05,4.43 4.62,6.98 8.99,8.53 15.15,9.08"/>
    </edge>
    <edge id=":J1_10" function="internal">
        <lane id=":J1_10_0" index="0" speed="13.89" length="16.95" shape="1.27,0.88 0.75,17.82"/>
    </edge>
    <edge id=":J1_11" function="internal">
        <lane id=":J1_11_0" index="0" speed="8.61" length="16.27" shape="1.27,0.88 0.58,5.82 -1.14,9.35 -3.91,11.46 -7.73,12.16"/>
    </edge>
    <edge id=":J1_12" function="internal">
        <lane id=":J1_12_0" index="0" speed="7.25" length="11.24" shape="-7.72,8.96 -5.28,8.45 -3.50,6.92 -2.38,4.37 -1.93,0.79"/>
    </edge>
    <edge id=":J1_13" function="internal">
        <lane id=":J1_13_0" index="0" speed="13.89" length="21.50" shape="-7.72,8.96 -3.11,8.12 2.50,6.07 7.98,3.55 12.22,1.29"/>
    </edge>
    <edge id=":J1_14" function="internal">
        <lane id=":J1_14_0" index="0" speed="13.89" length="22.88" shape="-7.72,8.96 15.15,9.08"/>
    </edge>
    <edge id=":J1_15" function="internal">
        <lane id=":J1_15_0" index="0" speed="7.89" length="4.04" shape="-7.72,8.96 -3.91,9.52 -3.75,9.62"/>
    </edge>
    <edge id=":J1_18" function="internal">
        <lane id=":J1_18_0" index="0" speed="7.89" length="10.04" shape="-3.75,9.62 -1.22,11.18 0.33,13.95 0.75,17.82"/>
    </edge>
    <edge id=":J2_0" function="internal">
        <lane id=":J2_0_0" index="0" speed="6.08" length="7.68" shape="73.52,7.92 73.19,10.00 72.28,11.48 70.78,12.36 68.69,12.64"/>
    </edge>
    <edge id=":J2_1" function="internal">
        <lane id=":J2_1_0" index="0" speed="3.90" length="2.56" shape="68.71,9.44 69.41,9.34 69.91,9.05 70.21,8.56 70.32,7.87"/>
    </edge>
    <edge id=":J3_0" function="internal">
        <lane id=":J3_0_0" index="0" speed="6.21" length="11.51" shape="66.90,-30.37 70.11,-31.70 72.37,-31.44 73.71,-29.58 74.10,-26.13"/>
    </edge>
    <edge id=":J3_1" function="internal">
        <lane id=":J3_1_0" index="0" speed="3.98" length="3.84" shape="70.90,-26.19 70.77,-27.34 70.33,-27.95 69.57,-28.04 68.50,-27.60"/>
    </edge>
    <edge id=":J4_0" function="internal">
        <lane id=":J4_0_0" index="0" speed="6.21" length="11.44" shape="-5.07,-30.99 -1.87,-32.25 0.39,-31.95 1.69,-30.08 2.05,-26.65"/>
    </edge>
    <edge id=":J4_1" function="internal">
        <lane id=":J4_1_0" index="0" speed="3.97" length="3.81" shape="-1.15,-26.75 -1.27,-27.89 -1.70,-28.51 -2.45,-28.61 -3.52,-28.19"/>
    </edge>
    <edge id=":J5_0" function="internal">
        <lane id=":J5_0_0" index="0" speed="6.11" length="7.68" shape="0.33,30.48 0.06,33.22 -0.56,35.17 -1.53,36.34 -2.84,36.72"/>
    </edge>
    <edge id=":J6_0" function="internal">
        <lane id=":J6_0_0" index="0" speed="7.66" length="2.49" shape="-32.67,36.59 -33.40,36.58 -33.90,36.50 -34.38,36.32 -35.02,35.96"/>
    </edge>
    <edge id=":J6_1" function="internal">
        <lane id=":J6_1_0" index="0" speed="13.89" length="0.83" shape="-33.44,33.18 -33.22,33.30 -33.06,33.36 -32.90,33.39 -32.65,33.39"/>
    </edge>

    <edge id="-E0" from="J1" to="J0" priority="-1">
        <lane id="-E0_0" index="0" speed="13.89" length="52.48" shape="-7.73,12.16 -60.21,12.07"/>
    </edge>
    <edge id="-E1" from="J2" to="J1" priority="-1">
        <lane id="-E1_0" index="0" speed="13.89" length="53.56" shape="68.69,12.64 15.13,12.28"/>
    </edge>
    <edge id="-E2" from="J3" to="J2" priority="-1">
        <lane id="-E2_0" index="0" speed="13.89" length="34.06" shape="74.10,-26.13 73.52,7.92"/>
    </edge>
    <edge id="-E3" from="J1" to="J3" priority="-1">
        <lane id="-E3_0" index="0" speed="13.89" length="63.18" shape="12.22,1.29 66.90,-30.37"/>
    </edge>
    <edge id="-E4" from="J4" to="J1" priority="-1">
        <lane id="-E4_0" index="0" speed="13.89" length="27.55" shape="2.05,-26.65 1.27,0.88"/>
    </edge>
    <edge id="-E6" from="J4" to="J0" priority="-1">
        <lane id="-E6_0" index="0" speed="13.89" length="66.26" shape="-3.52,-28.19 -61.48,3.92"/>
    </edge>
    <edge id="-E7" from="J6" to="J5" priority="-1">
        <lane id="-E7_0" index="0" speed="13.89" length="29.83" shape="-32.65,33.39 -2.82,33.52"/>
    </edge>
    <edge id="-E8" from="J0" to="J6" priority="-1">
        <lane id="-E8_0" index="0" speed="13.89" length="32.60" shape="-61.75,17.03 -33.44,33.18"/>
    </edge>
    <edge id="E0" from="J0" to="J1" priority="-1">
        <lane id="E0_0" index="0" speed="13.89" length="52.48" shape="-60.20,8.87 -7.72,8.96"/>
    </edge>
    <edge id="E1" from="J1" to="J2" priority="-1">
        <lane id="E1_0" index="0" speed="13.89" length="53.56" shape="15.15,9.08 68.71,9.44"/>
    </edge>
    <edge id="E2" from="J2" to="J3" priority="-1">
        <lane id="E2_0" index="0" speed="13.89" length="34.06" shape="70.32,7.87 70.90,-26.19"/>
    </edge>
    <edge id="E3" from="J3" to="J1" priority="-1">
        <lane id="E3_0" index="0" speed="13.89" length="63.18" shape="68.50,-27.60 13.83,4.06"/>
    </edge>
    <edge id="E4" from="J1" to="J4" priority="-1">
        <lane id="E4_0" index="0" speed="13.89" length="27.55" shape="-1.93,0.79 -1.15,-26.75"/>
    </edge>
    <edge id="E5" from="J1" to="J5" priority="-1">
        <lane id="E5_0" index="0" speed="13.89" length="12.67" shape="0.75,17.82 0.33,30.48"/>
    </edge>
    <edge id="E6" from="J0" to="J4" priority="-1">
        <lane id="E6_0" index="0" speed="13.89" length="66.26" shape="-63.03,1.12 -5.07,-30.99"/>
    </edge>
    <edge id="E7" from="J5" to="J6" priority="-1">
        <lane id="E7_0" index="0" speed="13.89" length="29.83" shape="-2.84,36.72 -32.67,36.59"/>
    </edge>
    <edge id="E8" from="J6" to="J0" priority="-1">
        <lane id="E8_0" index="0" speed="13.89" length="32.60" shape="-35.02,35.96 -63.34,19.81"/>
    </edge>

    <junction id="J0" type="priority" x="-76.54" y="10.44" incLanes="E8_0 -E0_0 -E6_0" intLanes=":J0_0_0 :J0_6_0 :J0_2_0 :J0_3_0 :J0_4_0 :J0_5_0" shape="-64.13,21.20 -60.96,15.64 -60.21,13.67 -60.20,7.27 -60.70,5.32 -63.80,-0.28 -69.16,3.29 -72.40,6.86 -73.52,10.43 -72.51,14.01 -69.38,17.60">
        <request index="0" response="000000" foes="001000" cont="0"/>
        <request index="1" response="110000" foes="111000" cont="1"/>
        <request index="2" response="100000" foes="100000" cont="0"/>
        <request index="3" response="100011" foes="100011" cont="0"/>
        <request index="4" response="000000" foes="000010" cont="0"/>
        <request index="5" response="000000" foes="001110" cont="0"/>
    </junction>
    <junction id="J1" type="priority" x="-0.61" y="10.57" incLanes="-E1_0 E3_0 -E4_0 E0_0" intLanes=":J1_0_0 :J1_1_0 :J1_16_0 :J1_17_0 :J1_4_0 :J1_5_0 :J1_6_0 :J1_7_0 :J1_8_0 :J1_9_0 :J1_10_0 :J1_11_0 :J1_12_0 :J1_13_0 :J1_14_0 :J1_18_0" shape="15.12,13.88 15.17,7.48 14.63,5.45 11.42,-0.09 8.77,1.33 6.62,2.25 4.95,2.67 3.77,2.59 3.07,2.01 2.87,0.93 -3.53,0.75 -3.70,2.77 -4.08,4.42 -4.67,5.71 -5.48,6.63 -6.49,7.18 -7.72,7.36 -7.73,13.76 -5.59,13.87 -3.85,14.21 -2.50,14.77 -1.55,15.55 -1.00,16.55 -0.85,17.77 2.35,17.87 3.83,15.61 5.61,14.83 8.09,14.28 11.26,13.96">
        <request index="0"  response="0000000000000000" foes="1000010000100000" cont="0"/>
        <request index="1"  response="0000000000000000" foes="1000110001100000" cont="0"/>
        <request index="2"  response="0111000000000000" foes="0111110011100000" cont="1"/>
        <request index="3"  response="0110000000000000" foes="0110001111100000" cont="1"/>
        <request index="4"  response="0100000000000000" foes="0100001000000000" cont="0"/>
        <request index="5"  response="1100010000001111" foes="1100011000001111" cont="0"/>
        <request index="6"  response="1100000000001110" foes="1100111000001110" cont="0"/>
        <request index="7"  response="0011010000001100" foes="0011111000001100" cont="0"/>
        <request index="8"  response="0010000000001000" foes="0010000000001000" cont="0"/>
        <request index="9"  response="0110000011111000" foes="0110000011111000" cont="0"/>
        <request index="10" response="1110000001000111" foes="1110000011100111" cont="0"/>
        <request index="11" response="1110000011000110" foes="1110000011000110" cont="0"/>
        <request index="12" response="0000000000000000" foes="0000000010000100" cont="0"/>
        <request index="13" response="0000000000000000" foes="0000111110001100" cont="0"/>
        <request index="14" response="0000000000000000" foes="0000111001111100" cont="0"/>
        <request index="15" response="0000000000000011" foes="0000110001100011" cont="1"/>
    </junction>
    <junction id="J2" type="priority" x="71.87" y="11.06" incLanes="-E2_0 E1_0" intLanes=":J2_0_0 :J2_1_0" shape="75.12,7.95 68.72,7.84 68.68,14.24 72.21,13.56 73.46,12.69 74.36,11.46 74.91,9.88">
        <request index="0" response="00" foes="00" cont="0"/>
        <request index="1" response="00" foes="00" cont="0"/>
    </junction>
    <junction id="J3" type="priority" x="72.60" y="-31.82" incLanes="-E3_0 E2_0" intLanes=":J3_0_0 :J3_1_0" shape="66.10,-31.75 69.30,-26.21 75.70,-26.10 75.49,-29.41 74.72,-31.76 73.40,-33.18 71.52,-33.65 69.09,-33.17">
        <request index="0" response="00" foes="00" cont="0"/>
        <request index="1" response="00" foes="00" cont="0"/>
    </junction>
    <junction id="J4" type="priority" x="0.61" y="-32.31" incLanes="E6_0 E4_0" intLanes=":J4_0_0 :J4_1_0" shape="-5.85,-32.39 -2.75,-26.79 3.65,-26.61 3.47,-29.89 2.74,-32.24 1.43,-33.66 -0.43,-34.16 -2.86,-33.74">
        <request index="0" response="00" foes="00" cont="0"/>
        <request index="1" response="00" foes="00" cont="0"/>
    </junction>
    <junction id="J5" type="priority" x="-1.42" y="35.13" incLanes="E5_0 -E7_0" intLanes=":J5_0_0" shape="1.93,30.54 -1.27,30.43 -1.46,31.26 -1.68,31.55 -1.98,31.76 -2.35,31.88 -2.81,31.92 -2.84,38.32 -0.30,37.47 0.61,36.39 1.29,34.87 1.73,32.92">
        <request index="0" response="0" foes="0" cont="0"/>
    </junction>
    <junction id="J6" type="priority" x="-33.50" y="34.99" incLanes="E7_0 -E8_0" intLanes=":J6_0_0 :J6_1_0" shape="-32.67,38.19 -32.65,31.79 -35.82,37.35 -34.73,37.93 -34.32,38.07 -33.90,38.15 -33.37,38.18">
        <request index="0" response="00" foes="00" cont="0"/>
        <request index="1" response="00" foes="00" cont="0"/>
    </junction>

    <junction id=":J0_6_0" type="internal" x="-65.79" y="17.08" incLanes=":J0_1_0 -E6_0" intLanes=":J0_3_0 :J0_4_0 :J0_5_0"/>
    <junction id=":J1_16_0" type="internal" x="7.74" y="11.53" incLanes=":J1_2_0 E0_0" intLanes=":J1_5_0 :J1_6_0 :J1_7_0 :J1_10_0 :J1_11_0 :J1_12_0 :J1_13_0 :J1_14_0"/>
    <junction id=":J1_17_0" type="internal" x="12.85" y="11.52" incLanes=":J1_3_0 E0_0" intLanes=":J1_5_0 :J1_6_0 :J1_7_0 :J1_8_0 :J1_9_0 :J1_13_0 :J1_14_0"/>
    <junction id=":J1_18_0" type="internal" x="-3.75" y="9.62" incLanes=":J1_15_0 -E1_0" intLanes=":J1_0_0 :J1_1_0 :J1_5_0 :J1_6_0 :J1_10_0 :J1_11_0"/>

    <connection from="-E0" to="-E8" fromLane="0" toLane="0" via=":J0_2_0" dir="r" state="m"/>
    <connection from="-E0" to="E6" fromLane="0" toLane="0" via=":J0_3_0" dir="l" state="m"/>
    <connection from="-E1" to="E5" fromLane="0" toLane="0" via=":J1_0_0" dir="r" state="M"/>
    <connection from="-E1" to="-E0" fromLane="0" toLane="0" via=":J1_1_0" dir="s" state="M"/>
    <connection from="-E1" to="E4" fromLane="0" toLane="0" via=":J1_2_0" dir="l" state="m"/>
    <connection from="-E1" to="-E3" fromLane="0" toLane="0" via=":J1_3_0" dir="l" state="m"/>
    <connection from="-E2" to="-E1" fromLane="0" toLane="0" via=":J2_0_0" dir="l" state="M"/>
    <connection from="-E3" to="-E2" fromLane="0" toLane="0" via=":J3_0_0" dir="l" state="M"/>
    <connection from="-E4" to="-E3" fromLane="0" toLane="0" via=":J1_8_0" dir="r" state="m"/>
    <connection from="-E4" to="E1" fromLane="0" toLane="0" via=":J1_9_0" dir="r" state="m"/>
    <connection from="-E4" to="E5" fromLane="0" toLane="0" via=":J1_10_0" dir="s" state="m"/>
    <connection from="-E4" to="-E0" fromLane="0" toLane="0" via=":J1_11_0" dir="l" state="m"/>
    <connection from="-E6" to="E0" fromLane="0" toLane="0" via=":J0_4_0" dir="r" state="M"/>
    <connection from="-E6" to="-E8" fromLane="0" toLane="0" via=":J0_5_0" dir="r" state="M"/>
    <connection from="-E8" to="-E7" fromLane="0" toLane="0" via=":J6_1_0" dir="s" state="M"/>
    <connection from="E0" to="E4" fromLane="0" toLane="0" via=":J1_12_0" dir="r" state="M"/>
    <connection from="E0" to="-E3" fromLane="0" toLane="0" via=":J1_13_0" dir="R" state="M"/>
    <connection from="E0" to="E1" fromLane="0" toLane="0" via=":J1_14_0" dir="s" state="M"/>
    <connection from="E0" to="E5" fromLane="0" toLane="0" via=":J1_15_0" dir="l" state="m"/>
    <connection from="E1" to="E2" fromLane="0" toLane="0" via=":J2_1_0" dir="r" state="M"/>
    <connection from="E2" to="E3" fromLane="0" toLane="0" via=":J3_1_0" dir="r" state="M"/>
    <connection from="E3" to="E1" fromLane="0" toLane="0" via=":J1_4_0" dir="r" state="m"/>
    <connection from="E3" to="E5" fromLane="0" toLane="0" via=":J1_5_0" dir="R" state="m"/>
    <connection from="E3" to="-E0" fromLane="0" toLane="0" via=":J1_6_0" dir="s" state="m"/>
    <connection from="E3" to="E4" fromLane="0" toLane="0" via=":J1_7_0" dir="l" state="m"/>
    <connection from="E4" to="-E6" fromLane="0" toLane="0" via=":J4_1_0" dir="r" state="M"/>
    <connection from="E5" to="E7" fromLane="0" toLane="0" via=":J5_0_0" dir="l" state="M"/>
    <connection from="E6" to="-E4" fromLane="0" toLane="0" via=":J4_0_0" dir="l" state="M"/>
    <connection from="E7" to="E8" fromLane="0" toLane="0" via=":J6_0_0" dir="s" state="M"/>
    <connection from="E8" to="E6" fromLane="0" toLane="0" via=":J0_0_0" dir="l" state="M"/>
    <connection from="E8" to="E0" fromLane="0" toLane="0" via=":J0_1_0" dir="l" state="m"/>

    <connection from=":J0_0" to="E6" fromLane="0" toLane="0" dir="l" state="M"/>
    <connection from=":J0_1" to="E0" fromLane="0" toLane="0" via=":J0_6_0" dir="l" state="m"/>
    <connection from=":J0_6" to="E0" fromLane="0" toLane="0" dir="l" state="M"/>
    <connection from=":J0_2" to="-E8" fromLane="0" toLane="0" dir="r" state="M"/>
    <connection from=":J0_3" to="E6" fromLane="0" toLane="0" dir="l" state="M"/>
    <connection from=":J0_4" to="E0" fromLane="0" toLane="0" dir="r" state="M"/>
    <connection from=":J0_5" to="-E8" fromLane="0" toLane="0" dir="r" state="M"/>
    <connection from=":J1_0" to="E5" fromLane="0" toLane="0" dir="r" state="M"/>
    <connection from=":J1_1" to="-E0" fromLane="0" toLane="0" dir="s" state="M"/>
    <connection from=":J1_2" to="E4" fromLane="0" toLane="0" via=":J1_16_0" dir="l" state="m"/>
    <connection from=":J1_16" to="E4" fromLane="0" toLane="0" dir="l" state="M"/>
    <connection from=":J1_3" to="-E3" fromLane="0" toLane="0" via=":J1_17_0" dir="l" state="m"/>
    <connection from=":J1_17" to="-E3" fromLane="0" toLane="0" dir="l" state="M"/>
    <connection from=":J1_4" to="E1" fromLane="0" toLane="0" dir="r" state="M"/>
    <connection from=":J1_5" to="E5" fromLane="0" toLane="0" dir="R" state="M"/>
    <connection from=":J1_6" to="-E0" fromLane="0" toLane="0" dir="s" state="M"/>
    <connection from=":J1_7" to="E4" fromLane="0" toLane="0" dir="l" state="M"/>
    <connection from=":J1_8" to="-E3" fromLane="0" toLane="0" dir="r" state="M"/>
    <connection from=":J1_9" to="E1" fromLane="0" toLane="0" dir="r" state="M"/>
    <connection from=":J1_10" to="E5" fromLane="0" toLane="0" dir="s" state="M"/>
    <connection from=":J1_11" to="-E0" fromLane="0" toLane="0" dir="l" state="M"/>
    <connection from=":J1_12" to="E4" fromLane="0" toLane="0" dir="r" state="M"/>
    <connection from=":J1_13" to="-E3" fromLane="0" toLane="0" dir="R" state="M"/>
    <connection from=":J1_14" to="E1" fromLane="0" toLane="0" dir="s" state="M"/>
    <connection from=":J1_15" to="E5" fromLane="0" toLane="0" via=":J1_18_0" dir="l" state="m"/>
    <connection from=":J1_18" to="E5" fromLane="0" toLane="0" dir="l" state="M"/>
    <connection from=":J2_0" to="-E1" fromLane="0" toLane="0" dir="l" state="M"/>
    <connection from=":J2_1" to="E2" fromLane="0" toLane="0" dir="r" state="M"/>
    <connection from=":J3_0" to="-E2" fromLane="0" toLane="0" dir="l" state="M"/>
    <connection from=":J3_1" to="E3" fromLane="0" toLane="0" dir="r" state="M"/>
    <connection from=":J4_0" to="-E4" fromLane="0" toLane="0" dir="l" state="M"/>
    <connection from=":J4_1" to="-E6" fromLane="0" toLane="0" dir="r" state="M"/>
    <connection from=":J5_0" to="E7" fromLane="0" toLane="0" dir="l" state="M"/>
    <connection from=":J6_0" to="E8" fromLane="0" toLane="0" dir="s" state="M"/>
    <connection from=":J6_1" to="-E7" fromLane="0" toLane="0" dir="s" state="M"/>

</net>
