<?xml version="1.0" encoding="UTF-8"?>

<!-- generated on 2026-06-09T13:21:48.897524+05:30 by Eclipse SUMO netedit 1.26.0
-->

<additional xmlns:xsi="http://www.w3.org/2001/XMLSchema-instance" xsi:noNamespaceSchemaLocation="http://sumo.dlr.de/xsd/additional_file.xsd">
    <!-- Shapes -->
    <poly id="po_2" type="Terrain" color="red" fill="0" layer="0.00" shape="-128.762618,46.750639 -130.885860,-67.055119 103.944678,-66.205822 101.396788,43.778101 -128.775255,46.750682"/>
</additional>
