<?xml version="1.0" encoding="UTF-8"?>

<!-- generated on 2026-06-12T16:03:11.399476+05:30 by Eclipse SUMO sumo 1.26.0
-->

<sumoConfiguration xmlns:xsi="http://www.w3.org/2001/XMLSchema-instance" xsi:noNamespaceSchemaLocation="http://sumo.dlr.de/xsd/sumoConfiguration.xsd">

    <input>
        <net-file value="Sumo2Unity.net.xml"/>
        <additional-files value="Sumo2Unity.poly.xml.add.xml"/>
    </input>

</sumoConfiguration>
